Version 4
SHEET 1 880 680
WIRE 352 -96 112 -96
WIRE 112 -16 112 -96
WIRE 64 0 -48 0
WIRE 112 64 112 32
WIRE 112 96 112 80
WIRE 160 96 112 96
WIRE 112 128 112 96
WIRE -48 208 -48 0
WIRE -48 208 -176 208
WIRE 64 208 -48 208
WIRE -176 240 -176 208
WIRE -176 384 -176 320
WIRE 112 384 112 224
WIRE 112 384 -176 384
FLAG 112 384 0
FLAG 112 176 0
FLAG 432 -96 0
SYMBOL voltage -176 224 R0
WINDOW 123 0 0 Left 2
WINDOW 39 0 0 Left 2
SYMATTR InstName vin
SYMATTR Value 5
SYMBOL nmos4 64 128 R0
SYMATTR InstName M1
SYMATTR Value2 l=10 w=20
SYMBOL pmos4 64 80 M180
SYMATTR InstName M2
SYMATTR Value2 l=10 w=10
SYMBOL voltage 336 -96 R270
WINDOW 123 0 0 Left 2
WINDOW 39 0 0 Left 2
SYMATTR InstName Vdd
SYMATTR Value 5
TEXT -210 408 Left 2 !.dc vin 0 5 0.5
TEXT 592 -80 Left 2 ;for bn/bp=1
TEXT 592 -40 Left 2 ;for bn/bp>1
TEXT 592 0 Left 2 ;for bn/bp<1
