Version 4
SHEET 1 880 680
WIRE -2400 -1472 -2752 -1472
WIRE -2752 -1424 -2752 -1472
WIRE -2400 -1424 -2400 -1472
WIRE -2800 -1344 -3040 -1344
WIRE -3040 -1312 -3040 -1344
WIRE -3040 -1168 -3040 -1232
WIRE -2752 -1168 -2752 -1328
WIRE -2752 -1168 -3040 -1168
WIRE -2400 -1168 -2400 -1344
WIRE -2400 -1168 -2752 -1168
FLAG -2752 -1168 0
FLAG -2752 -1376 0
SYMBOL nmos4 -2800 -1424 R0
SYMATTR InstName M1
SYMBOL voltage -2400 -1440 R0
WINDOW 123 0 0 Left 2
WINDOW 39 0 0 Left 2
SYMATTR InstName V1
SYMATTR Value 5
SYMBOL voltage -3040 -1328 R0
WINDOW 123 0 0 Left 2
WINDOW 39 0 0 Left 2
SYMATTR InstName V2
SYMATTR Value 5
TEXT -3072 -1144 Left 2 !.dc  V2 0 5 1
